<?xml version="1.0" encoding="UTF-8"?>

<!-- generated on 2026-04-02 19:03:26.130046 by Eclipse SUMO randomTrips.py v1_26_0+0000-fa7df22d7f1
<configuration>
    <net-file value="GangnamMapFile\LargeGangnamStation.net.xml"/>
    <output-trip-file value="LargeGangnamStationroute.rou.xml"/>
    <length value="True"/>
    <end value="1000.0"/>
</configuration>
-->

<routes xmlns:xsi="http://www.w3.org/2001/XMLSchema-instance" xsi:noNamespaceSchemaLocation="http://sumo.dlr.de/xsd/routes_file.xsd">
    <trip id="0" depart="0.00" from="239953463#2" to="-117790044#7"/>
    <trip id="1" depart="1.00" from="-411553135#0" to="-37399192#0"/>
    <trip id="2" depart="2.00" from="379232159#1" to="256787796#0"/>
    <trip id="3" depart="3.00" from="522799168#0" to="-174890794#3"/>
    <trip id="4" depart="4.00" from="-802770128#1" to="-117790048#5"/>
    <trip id="5" depart="5.00" from="-309155295#3" to="117823785#4"/>
    <trip id="6" depart="6.00" from="-117790045#0" to="-26004328#0"/>
    <trip id="7" depart="7.00" from="239954007" to="174890795#2"/>
    <trip id="8" depart="8.00" from="-354725379#1" to="219837933#1"/>
    <trip id="9" depart="9.00" from="417750364#0" to="-1056882877#5"/>
    <trip id="10" depart="10.00" from="417750354#1" to="306396057#0"/>
    <trip id="11" depart="11.00" from="-417933648" to="-239953461#1"/>
    <trip id="12" depart="12.00" from="802882395" to="-417933647#0"/>
    <trip id="13" depart="13.00" from="-176732664#4" to="-194455124#0"/>
    <trip id="14" depart="14.00" from="494824663#3" to="220412424#3"/>
    <trip id="15" depart="15.00" from="417750356#1" to="376649996#11"/>
    <trip id="16" depart="16.00" from="-506191135#4" to="176732665#1"/>
    <trip id="17" depart="17.00" from="417933650#1" to="220412435"/>
    <trip id="18" depart="18.00" from="506191135#0" to="218864491#5"/>
    <trip id="19" depart="19.00" from="317781645#1" to="-117792342#2"/>
    <trip id="20" depart="20.00" from="-37401215#1" to="-417731485#1"/>
    <trip id="21" depart="21.00" from="-174890787#1" to="-376649992"/>
    <trip id="22" depart="22.00" from="-210332892#0" to="-417723826#0"/>
    <trip id="23" depart="23.00" from="239953388" to="-504227066#0"/>
    <trip id="24" depart="24.00" from="-504227068#2" to="-282212927#2"/>
    <trip id="25" depart="25.00" from="239954001" to="220412426#1"/>
    <trip id="26" depart="26.00" from="-239954365#2" to="376649996#10"/>
    <trip id="27" depart="27.00" from="-239953791#0" to="-506191135#6"/>
    <trip id="28" depart="28.00" from="921707136#6" to="239953463#4"/>
    <trip id="29" depart="29.00" from="178441450#4" to="26163000#6"/>
    <trip id="30" depart="30.00" from="494824661#1" to="417731496#4"/>
    <trip id="31" depart="31.00" from="-37401215#2" to="-117790051#0"/>
    <trip id="32" depart="32.00" from="-417750342#2" to="-392691744#3"/>
    <trip id="33" depart="33.00" from="521766180#1" to="-417750342#0"/>
    <trip id="34" depart="34.00" from="239954365#2" to="-523257331#1"/>
    <trip id="35" depart="35.00" from="541692164#1" to="117790039#3"/>
    <trip id="36" depart="36.00" from="-379470602#1" to="-379417025#2"/>
    <trip id="37" depart="37.00" from="210332890#2" to="-379470601"/>
    <trip id="38" depart="38.00" from="218873820#2" to="522799172#2"/>
    <trip id="39" depart="39.00" from="-525738547#2" to="-354725379#1"/>
    <trip id="40" depart="40.00" from="921707137#5" to="117823788#3"/>
    <trip id="41" depart="41.00" from="-176732664#0" to="-117792352#0"/>
    <trip id="42" depart="42.00" from="-218724602#3" to="239953380#0"/>
    <trip id="43" depart="43.00" from="417750336#2" to="-802882395"/>
    <trip id="44" depart="44.00" from="-117823788#3" to="-522799167#0"/>
    <trip id="45" depart="45.00" from="921707137#4" to="129733424#0"/>
    <trip id="46" depart="46.00" from="-117790029#1" to="375049565#7"/>
    <trip id="47" depart="47.00" from="26004328#0" to="174890791#4"/>
    <trip id="48" depart="48.00" from="-392691741" to="239953464#1"/>
    <trip id="49" depart="49.00" from="-218873824#1" to="-921278929"/>
    <trip id="50" depart="50.00" from="117790029#1" to="802770128#0"/>
    <trip id="51" depart="51.00" from="521766177#1" to="-379470602#0"/>
    <trip id="52" depart="52.00" from="117823773#2" to="-239954369#2"/>
    <trip id="53" depart="53.00" from="525738547#3" to="521766172#1"/>
    <trip id="54" depart="54.00" from="-417746802#3" to="239953463#3"/>
    <trip id="55" depart="55.00" from="220412425#4" to="-239953386#1"/>
    <trip id="56" depart="56.00" from="411553135#0" to="174890792#5"/>
    <trip id="57" depart="57.00" from="417731501#1" to="1467794801"/>
    <trip id="58" depart="58.00" from="-1011529829#0" to="-417750364#0"/>
    <trip id="59" depart="59.00" from="-117790039#9" to="623720803#2"/>
    <trip id="60" depart="60.00" from="521766180#3" to="417933652#0"/>
    <trip id="61" depart="61.00" from="-417750336#3" to="-117823785#2"/>
    <trip id="62" depart="62.00" from="521766180#2" to="702032001"/>
    <trip id="63" depart="63.00" from="-174890791#5" to="117790062#3"/>
    <trip id="64" depart="64.00" from="-129731720#0" to="411553135#0"/>
    <trip id="65" depart="65.00" from="417723810#2" to="-220412424#3"/>
    <trip id="66" depart="66.00" from="117790049#0" to="176732664#2"/>
    <trip id="67" depart="67.00" from="-379470602#1" to="521766175#3"/>
    <trip id="68" depart="68.00" from="-802882395" to="-306337648#1"/>
    <trip id="69" depart="69.00" from="174890792#0" to="376649996#2"/>
    <trip id="70" depart="70.00" from="-260064617#1" to="-417750337#5"/>
    <trip id="71" depart="71.00" from="921707137#2" to="239954010"/>
    <trip id="72" depart="72.00" from="1011529829#0" to="129731721#1"/>
    <trip id="73" depart="73.00" from="-220411674" to="-37399192#0"/>
    <trip id="74" depart="74.00" from="-417933647#0" to="218971528#1"/>
    <trip id="75" depart="75.00" from="-37403040#2" to="-354725380#0"/>
    <trip id="76" depart="76.00" from="-129731721#1" to="239953383#1"/>
    <trip id="77" depart="77.00" from="-37401215#2" to="523257330"/>
    <trip id="78" depart="78.00" from="504231011#0" to="-129731721#1"/>
    <trip id="79" depart="79.00" from="-376649996#0" to="239962772"/>
    <trip id="80" depart="80.00" from="-306342706#4" to="-220412425#4"/>
    <trip id="81" depart="81.00" from="117790045#2" to="417746809#2"/>
    <trip id="82" depart="82.00" from="417750356#1" to="-239962778#2"/>
    <trip id="83" depart="83.00" from="-183401931#3" to="-919983794#3"/>
    <trip id="84" depart="84.00" from="-802882395" to="117790044#3"/>
    <trip id="85" depart="85.00" from="376649996#1" to="239962779#0"/>
    <trip id="86" depart="86.00" from="921278929" to="-210332890#0"/>
    <trip id="87" depart="87.00" from="-542367267#0" to="-417933648"/>
    <trip id="88" depart="88.00" from="506191135#0" to="-379417040#0"/>
    <trip id="89" depart="89.00" from="-239962778#3" to="1117538959"/>
    <trip id="90" depart="90.00" from="-802770128#1" to="-417723826#0"/>
    <trip id="91" depart="91.00" from="-379417040#0" to="623719387"/>
    <trip id="92" depart="92.00" from="1056882877#12" to="506191135#0"/>
    <trip id="93" depart="93.00" from="176732664#2" to="-117823767#1"/>
    <trip id="94" depart="94.00" from="990628459" to="417936793#1"/>
    <trip id="95" depart="95.00" from="494824663#5" to="-239953792#1"/>
    <trip id="96" depart="96.00" from="117790062#1" to="-306396057#0"/>
    <trip id="97" depart="97.00" from="-525738547#4" to="-117823785#3"/>
    <trip id="98" depart="98.00" from="-506191135#4" to="921656457"/>
    <trip id="99" depart="99.00" from="-379470602#1" to="417746809#1"/>
    <trip id="100" depart="100.00" from="117790031#3" to="-803535315#0"/>
    <trip id="101" depart="101.00" from="803535315#0" to="921707137#2"/>
    <trip id="102" depart="102.00" from="178441450#3" to="375049565#5"/>
    <trip id="103" depart="103.00" from="-239953461#0" to="-417746801"/>
    <trip id="104" depart="104.00" from="174890794#0" to="379463134#3"/>
    <trip id="105" depart="105.00" from="-117823777#5" to="218873827#0"/>
    <trip id="106" depart="106.00" from="117823777#5" to="504227067#4"/>
    <trip id="107" depart="107.00" from="-239953463#2" to="805827756#1"/>
    <trip id="108" depart="108.00" from="-174890787#2" to="-239954464#2"/>
    <trip id="109" depart="109.00" from="220411672#7" to="239962780#0"/>
    <trip id="110" depart="110.00" from="-376649993#1" to="-220411672#9"/>
    <trip id="111" depart="111.00" from="522435822#1" to="-379232161#5"/>
    <trip id="112" depart="112.00" from="220411672#17" to="220412436#1"/>
    <trip id="113" depart="113.00" from="-802770124" to="218873824#5"/>
    <trip id="114" depart="114.00" from="-282212925" to="375049565#11"/>
    <trip id="115" depart="115.00" from="-376649996#0" to="-523257331#1"/>
    <trip id="116" depart="116.00" from="239962776" to="-417746803#0"/>
    <trip id="117" depart="117.00" from="-417750343" to="379470606"/>
    <trip id="118" depart="118.00" from="-129731834#1" to="117790039#2"/>
    <trip id="119" depart="119.00" from="975332778#1" to="921707137#4"/>
    <trip id="120" depart="120.00" from="-129731834#1" to="-306342706#3"/>
    <trip id="121" depart="121.00" from="-379470602#1" to="628232693"/>
    <trip id="122" depart="122.00" from="521766182#1-AddedOffRampEdge" to="521766181#1"/>
    <trip id="123" depart="123.00" from="-504227068#1" to="-239953463#2"/>
    <trip id="124" depart="124.00" from="417933657" to="317781645#1"/>
    <trip id="125" depart="125.00" from="220412426#1" to="921707136#2"/>
    <trip id="126" depart="126.00" from="239954364#3" to="-117786462#0"/>
    <trip id="127" depart="127.00" from="417933644" to="-417746802#6"/>
    <trip id="128" depart="128.00" from="-220412427#1" to="-219837933#1"/>
    <trip id="129" depart="129.00" from="-218724602#0" to="176732665#4"/>
    <trip id="130" depart="130.00" from="-404008685#1" to="220412424#3"/>
    <trip id="131" depart="131.00" from="375049565#11" to="-26163000#6"/>
    <trip id="132" depart="132.00" from="239953385#2" to="-379470602#1"/>
    <trip id="133" depart="133.00" from="117790062#6" to="523257330"/>
    <trip id="134" depart="134.00" from="494824663#1" to="-176732664#4"/>
    <trip id="135" depart="135.00" from="-802882395" to="-417723810#1"/>
    <trip id="136" depart="136.00" from="-1056882877#10" to="417726317#2"/>
    <trip id="137" depart="137.00" from="239953461#2" to="-379470569"/>
    <trip id="138" depart="138.00" from="379417029#1" to="176732665#1"/>
    <trip id="139" depart="139.00" from="-805827765" to="-117786463#7"/>
    <trip id="140" depart="140.00" from="-129731857#1" to="521766187#0"/>
    <trip id="141" depart="141.00" from="523141073" to="174890795#3"/>
    <trip id="142" depart="142.00" from="417936793#1" to="218873824#1"/>
    <trip id="143" depart="143.00" from="-239953380#5" to="-220412424#3"/>
    <trip id="144" depart="144.00" from="-417750336#4" to="522799178"/>
    <trip id="145" depart="145.00" from="417750337#2" to="506191135#0"/>
    <trip id="146" depart="146.00" from="522799174#1" to="-282212927#3"/>
    <trip id="147" depart="147.00" from="-379417040#0" to="-210332895#2"/>
    <trip id="148" depart="148.00" from="417731530" to="521770116#0"/>
    <trip id="149" depart="149.00" from="-606577877#0" to="220412437#1"/>
    <trip id="150" depart="150.00" from="-239953461#0" to="623720804#1"/>
    <trip id="151" depart="151.00" from="506191135#21" to="919983794#0"/>
    <trip id="152" depart="152.00" from="417750365" to="521766186#1"/>
    <trip id="153" depart="153.00" from="-117790044#7" to="379232159#2"/>
    <trip id="154" depart="154.00" from="-417933645#2" to="623720804#2"/>
    <trip id="155" depart="155.00" from="417750343" to="506191135#21"/>
    <trip id="156" depart="156.00" from="417750365" to="-392691744#1"/>
    <trip id="157" depart="157.00" from="417746809#6" to="-218724602#2"/>
    <trip id="158" depart="158.00" from="521766175#1" to="504231011#0"/>
    <trip id="159" depart="159.00" from="-354725380#2" to="417933644"/>
    <trip id="160" depart="160.00" from="117790039#4" to="-417746820#1"/>
    <trip id="161" depart="161.00" from="417750337#1" to="-37401215#2"/>
    <trip id="162" depart="162.00" from="-117790044#5" to="-239962779#0"/>
    <trip id="163" depart="163.00" from="-417933642#2" to="506191135#21"/>
    <trip id="164" depart="164.00" from="239953463#4" to="-525738547#3"/>
    <trip id="165" depart="165.00" from="919983794#6" to="174890791#2"/>
    <trip id="166" depart="166.00" from="623719388#5" to="-219837933#1"/>
    <trip id="167" depart="167.00" from="805827765" to="-379470618#0"/>
    <trip id="168" depart="168.00" from="-218724602#3" to="-921278928"/>
    <trip id="169" depart="169.00" from="376649996#0" to="-417750340"/>
    <trip id="170" depart="170.00" from="220412424#3" to="117823789#5"/>
    <trip id="171" depart="171.00" from="-522799168#3" to="218864491#4"/>
    <trip id="172" depart="172.00" from="-379452228" to="355295041"/>
    <trip id="173" depart="173.00" from="-1039024438#0" to="623719388#5"/>
    <trip id="174" depart="174.00" from="174890791#5" to="375049565#7"/>
    <trip id="175" depart="175.00" from="379417076" to="239962778#2"/>
    <trip id="176" depart="176.00" from="-494824663#4" to="-129731721#1"/>
    <trip id="177" depart="177.00" from="239954459#0" to="-417933642#3"/>
    <trip id="178" depart="178.00" from="-417750341#0" to="494824663#3"/>
    <trip id="179" depart="179.00" from="375049565#5" to="-417746803#1"/>
    <trip id="180" depart="180.00" from="-417750337#0" to="-623719388#3"/>
    <trip id="181" depart="181.00" from="-541692164#1" to="-417731504#3"/>
    <trip id="182" depart="182.00" from="-220412424#3" to="-802770128#1"/>
    <trip id="183" depart="183.00" from="623719388#7" to="256787796#1"/>
    <trip id="184" depart="184.00" from="523141073" to="220412432#0"/>
    <trip id="185" depart="185.00" from="-417746809#1" to="176732663#1"/>
    <trip id="186" depart="186.00" from="-1011529829#0" to="-417726317#3"/>
    <trip id="187" depart="187.00" from="239954365#0" to="117790044#0"/>
    <trip id="188" depart="188.00" from="1056882877#11" to="-306342706#3"/>
    <trip id="189" depart="189.00" from="117790045#3" to="522799179#3"/>
    <trip id="190" depart="190.00" from="417750337#2" to="-239954009#1"/>
    <trip id="191" depart="191.00" from="-174890791#4" to="129731720#1"/>
    <trip id="192" depart="192.00" from="239953383#2" to="-417933646#2"/>
    <trip id="193" depart="193.00" from="417933645#0" to="379470602#1"/>
    <trip id="194" depart="194.00" from="239962778#3" to="-37399192#0"/>
    <trip id="195" depart="195.00" from="-26004328#0" to="-117790044#7"/>
    <trip id="196" depart="196.00" from="-379232159#1" to="117790049#2"/>
    <trip id="197" depart="197.00" from="494824664#0" to="-129731852"/>
    <trip id="198" depart="198.00" from="-623720804#3" to="239953382"/>
    <trip id="199" depart="199.00" from="-239962780#1" to="306342706#3"/>
    <trip id="200" depart="200.00" from="117795644#0" to="-379232161#0"/>
    <trip id="201" depart="201.00" from="239954365#5" to="-1056882877#12"/>
    <trip id="202" depart="202.00" from="379470569" to="417726317#1"/>
    <trip id="203" depart="203.00" from="-218724602#0" to="-805119750#1"/>
    <trip id="204" depart="204.00" from="-239954368#0" to="803535317#1"/>
    <trip id="205" depart="205.00" from="129731721#1" to="-117823767#0"/>
    <trip id="206" depart="206.00" from="117790036#1" to="417750348#0"/>
    <trip id="207" depart="207.00" from="239954464#1" to="921707136#3"/>
    <trip id="208" depart="208.00" from="220411672#8" to="71105515#3"/>
    <trip id="209" depart="209.00" from="522799167#0" to="220412427#2"/>
    <trip id="210" depart="210.00" from="375049565#4" to="117823785#3"/>
    <trip id="211" depart="211.00" from="417933652#0" to="176732663#1"/>
    <trip id="212" depart="212.00" from="522799169#3" to="379452228"/>
    <trip id="213" depart="213.00" from="117790048#4" to="-379470559#0"/>
    <trip id="214" depart="214.00" from="-379232161#2" to="239953463#2"/>
    <trip id="215" depart="215.00" from="417723810#2" to="129731857#1"/>
    <trip id="216" depart="216.00" from="239953210#4" to="-411553135#1"/>
    <trip id="217" depart="217.00" from="-129731858#2" to="-417726317#2"/>
    <trip id="218" depart="218.00" from="-404008685#1" to="-417750354#0"/>
    <trip id="219" depart="219.00" from="174890792#5" to="-220412432#1"/>
    <trip id="220" depart="220.00" from="-376649989" to="305539406"/>
    <trip id="221" depart="221.00" from="354725379#1" to="-117823789#1"/>
    <trip id="222" depart="222.00" from="-623719386" to="174890794#3"/>
    <trip id="223" depart="223.00" from="-702032001" to="-282212927#0"/>
    <trip id="224" depart="224.00" from="-802770127#1" to="523141074#1"/>
    <trip id="225" depart="225.00" from="218873820#1" to="306337648#3"/>
    <trip id="226" depart="226.00" from="504227068#4" to="417723826#0"/>
    <trip id="227" depart="227.00" from="-506191135#7" to="-1056882877#2"/>
    <trip id="228" depart="228.00" from="-417936794#3" to="392691741"/>
    <trip id="229" depart="229.00" from="504227067#4" to="802770127#3"/>
    <trip id="230" depart="230.00" from="-802110008" to="379463134#2"/>
    <trip id="231" depart="231.00" from="174890795#3" to="220412424#3"/>
    <trip id="232" depart="232.00" from="-354725379#1" to="-354725379#1"/>
    <trip id="233" depart="233.00" from="-921278929" to="-117790048#0"/>
    <trip id="234" depart="234.00" from="-417933646#2" to="256787796#8"/>
    <trip id="235" depart="235.00" from="-557469234" to="-239953791#0"/>
    <trip id="236" depart="236.00" from="117790044#2" to="-220412424#3"/>
    <trip id="237" depart="237.00" from="220412437#1" to="-117790045#2"/>
    <trip id="238" depart="238.00" from="-523257330" to="210332897#0"/>
    <trip id="239" depart="239.00" from="-117790045#2" to="239953789"/>
    <trip id="240" depart="240.00" from="-220412428#1" to="117790040"/>
    <trip id="241" depart="241.00" from="-117795644#1" to="-506191135#4"/>
    <trip id="242" depart="242.00" from="-306337648#1" to="-417933642#0"/>
    <trip id="243" depart="243.00" from="411553134" to="-506191135#4"/>
    <trip id="244" depart="244.00" from="379470602#0" to="417933652#1"/>
    <trip id="245" depart="245.00" from="-379417105#3" to="-174890791#0"/>
    <trip id="246" depart="246.00" from="-117790039#9" to="174890792#5"/>
    <trip id="247" depart="247.00" from="990628460#1" to="-417936794#2"/>
    <trip id="248" depart="248.00" from="239954009#0" to="417746802#2"/>
    <trip id="249" depart="249.00" from="239954010" to="392691744#2"/>
    <trip id="250" depart="250.00" from="71105515#0" to="-26004328#0"/>
    <trip id="251" depart="251.00" from="-117790040" to="-239953386#1"/>
    <trip id="252" depart="252.00" from="-220412424#2" to="239962776"/>
    <trip id="253" depart="253.00" from="210332895#0" to="-309155295#4"/>
    <trip id="254" depart="254.00" from="306342706#3" to="417726315#0"/>
    <trip id="255" depart="255.00" from="-239954009#0" to="220412425#4"/>
    <trip id="256" depart="256.00" from="379463130#0" to="-218873827#2"/>
    <trip id="257" depart="257.00" from="-218724602#2" to="-117790044#8"/>
    <trip id="258" depart="258.00" from="-417750338" to="256787796#1"/>
    <trip id="259" depart="259.00" from="803535317#0" to="-523257331#5"/>
    <trip id="260" depart="260.00" from="375049565#0" to="-129731857#2"/>
    <trip id="261" depart="261.00" from="282212926#2" to="239953380#0"/>
    <trip id="262" depart="262.00" from="-210332895#0" to="417726317#2"/>
    <trip id="263" depart="263.00" from="504227065" to="220412424#1"/>
    <trip id="264" depart="264.00" from="-220411674" to="921278930#1"/>
    <trip id="265" depart="265.00" from="417746802#3" to="-417936793#1"/>
    <trip id="266" depart="266.00" from="-913950883#0" to="-504227068#4"/>
    <trip id="267" depart="267.00" from="117823785#4" to="-417933650#0"/>
    <trip id="268" depart="268.00" from="494824664#0" to="417933646#1"/>
    <trip id="269" depart="269.00" from="-210332898#3" to="805827756#1"/>
    <trip id="270" depart="270.00" from="239953388" to="417933649#1"/>
    <trip id="271" depart="271.00" from="354725380#0" to="-921278930#0"/>
    <trip id="272" depart="272.00" from="-404008684#0" to="417750363#0"/>
    <trip id="273" depart="273.00" from="174890791#4" to="117790060#0"/>
    <trip id="274" depart="274.00" from="-921278928" to="376649996#7"/>
    <trip id="275" depart="275.00" from="-392691744#2" to="504227067#1"/>
    <trip id="276" depart="276.00" from="417933652#0" to="-174890794#1"/>
    <trip id="277" depart="277.00" from="521766182#2" to="-379232161#0"/>
    <trip id="278" depart="278.00" from="117790041#3" to="220412426#1"/>
    <trip id="279" depart="279.00" from="-506191135#4" to="-117790045#3"/>
    <trip id="280" depart="280.00" from="504227066#0" to="-239954459#0"/>
    <trip id="281" depart="281.00" from="-306337648#2" to="417750340"/>
    <trip id="282" depart="282.00" from="-417933648" to="521766182#1-AddedOffRampEdge"/>
    <trip id="283" depart="283.00" from="309154980#0" to="-411553136"/>
    <trip id="284" depart="284.00" from="-117786468#0" to="703247062#1"/>
    <trip id="285" depart="285.00" from="-174890791#5" to="375049565#7"/>
    <trip id="286" depart="286.00" from="117790062#6" to="404008685#1"/>
    <trip id="287" depart="287.00" from="282212926#2" to="239954005#0"/>
    <trip id="288" depart="288.00" from="117792342#2" to="417750336#6"/>
    <trip id="289" depart="289.00" from="-176732665#0" to="-354725380#3"/>
    <trip id="290" depart="290.00" from="282212926#3" to="-417750336#1"/>
    <trip id="291" depart="291.00" from="218864491#7" to="117790048#0"/>
    <trip id="292" depart="292.00" from="129733424#3" to="-805119750#1"/>
    <trip id="293" depart="293.00" from="379463125" to="-417933645#0"/>
    <trip id="294" depart="294.00" from="309155295#1" to="-404008685#1"/>
    <trip id="295" depart="295.00" from="-379417089#1" to="-220411673"/>
    <trip id="296" depart="296.00" from="-239962779#0" to="-220411672#8"/>
    <trip id="297" depart="297.00" from="174890791#0" to="411553135#2"/>
    <trip id="298" depart="298.00" from="-239954464#2" to="-309155295#0"/>
    <trip id="299" depart="299.00" from="117790060#0" to="376649992"/>
    <trip id="300" depart="300.00" from="919983794#0" to="129731859#0"/>
    <trip id="301" depart="301.00" from="-417726317#0" to="-210332892#0"/>
    <trip id="302" depart="302.00" from="-239962780#0" to="-37401215#2"/>
    <trip id="303" depart="303.00" from="-239954371#1" to="-117790036#0"/>
    <trip id="304" depart="304.00" from="174890788" to="-411553135#1"/>
    <trip id="305" depart="305.00" from="306337648#1" to="-220412424#2"/>
    <trip id="306" depart="306.00" from="520307304#0" to="117792352#0"/>
    <trip id="307" depart="307.00" from="521766175#1" to="218864485"/>
    <trip id="308" depart="308.00" from="117790044#7" to="1056882877#10"/>
    <trip id="309" depart="309.00" from="-239954464#2" to="-117823767#2"/>
    <trip id="310" depart="310.00" from="623719388#8" to="117790051#2"/>
    <trip id="311" depart="311.00" from="417933646#2" to="-525738547#4"/>
    <trip id="312" depart="312.00" from="-129731852" to="239953382"/>
    <trip id="313" depart="313.00" from="-117823773#0" to="-239953382"/>
    <trip id="314" depart="314.00" from="210332892#2" to="-417746813#0"/>
    <trip id="315" depart="315.00" from="921707137#0" to="-220411672#4"/>
    <trip id="316" depart="316.00" from="411553136" to="220412425#2"/>
    <trip id="317" depart="317.00" from="417750336#1" to="-37401215#0"/>
    <trip id="318" depart="318.00" from="129731857#1" to="117786463#4"/>
    <trip id="319" depart="319.00" from="1056882877#12" to="504509918#2"/>
    <trip id="320" depart="320.00" from="921707136#6" to="-417746820#1"/>
    <trip id="321" depart="321.00" from="220412436#1" to="220412426#1"/>
    <trip id="322" depart="322.00" from="379232161#5" to="703247062#1"/>
    <trip id="323" depart="323.00" from="-282212927#1" to="-282212927#4"/>
    <trip id="324" depart="324.00" from="239954369#0" to="-239953463#1"/>
    <trip id="325" depart="325.00" from="-239954366#0" to="-129731857#1"/>
    <trip id="326" depart="326.00" from="-1043288121#0" to="117786463#4"/>
    <trip id="327" depart="327.00" from="220411672#15" to="-417731489"/>
    <trip id="328" depart="328.00" from="-376649989" to="354725380#2"/>
    <trip id="329" depart="329.00" from="309155295#1" to="117790031#2"/>
    <trip id="330" depart="330.00" from="282187799#1" to="623719388#0"/>
    <trip id="331" depart="331.00" from="417746809#6" to="239953210#4"/>
    <trip id="332" depart="332.00" from="-803535317#1" to="174890795#1"/>
    <trip id="333" depart="333.00" from="239953792#1" to="523257331#5"/>
    <trip id="334" depart="334.00" from="417933648" to="-129731834#1"/>
    <trip id="335" depart="335.00" from="-239954005#0" to="-417750336#3"/>
    <trip id="336" depart="336.00" from="379463134#2" to="218724602#0"/>
    <trip id="337" depart="337.00" from="-417731485#0" to="-220411679"/>
    <trip id="338" depart="338.00" from="282212924" to="309154980#1"/>
    <trip id="339" depart="339.00" from="623720804#1" to="117823777#0"/>
    <trip id="340" depart="340.00" from="117792380" to="-174890788"/>
    <trip id="341" depart="341.00" from="-117790060#3" to="-919983794#5"/>
    <trip id="342" depart="342.00" from="-417750356#2" to="-379417105#0"/>
    <trip id="343" depart="343.00" from="417936793#1" to="218864491#1"/>
    <trip id="344" depart="344.00" from="71105515#2" to="990628459"/>
    <trip id="345" depart="345.00" from="239962778#1" to="-404008684#1"/>
    <trip id="346" depart="346.00" from="-117790062#0" to="404008684#0"/>
    <trip id="347" depart="347.00" from="117790044#8" to="239954364#3"/>
    <trip id="348" depart="348.00" from="557469234" to="-239954371#2"/>
    <trip id="349" depart="349.00" from="218873824#1" to="239953461#0"/>
    <trip id="350" depart="350.00" from="117792352#0" to="-176732664#2"/>
    <trip id="351" depart="351.00" from="-417933657" to="-417933646#1"/>
    <trip id="352" depart="352.00" from="239962364#1" to="504227069#2"/>
    <trip id="353" depart="353.00" from="-417933642#3" to="304445274"/>
    <trip id="354" depart="354.00" from="417933642#1" to="176732664#2"/>
    <trip id="355" depart="355.00" from="117790031#2" to="-417750341#1"/>
    <trip id="356" depart="356.00" from="-557469234" to="129731717#0"/>
    <trip id="357" depart="357.00" from="921707136#4" to="239954368#0"/>
    <trip id="358" depart="358.00" from="174890794#1" to="-623720804#2"/>
    <trip id="359" depart="359.00" from="-239962776" to="-494824663#1"/>
    <trip id="360" depart="360.00" from="392691744#4" to="239953210#5"/>
    <trip id="361" depart="361.00" from="404008685#1" to="-26163000#6"/>
    <trip id="362" depart="362.00" from="176732663#1" to="623719388#8"/>
    <trip id="363" depart="363.00" from="1011529829#0" to="309154980#0"/>
    <trip id="364" depart="364.00" from="220412425#4" to="-376649996#11"/>
    <trip id="365" depart="365.00" from="-239953463#2" to="176732664#4"/>
    <trip id="366" depart="366.00" from="176732665#1" to="-176732665#1"/>
    <trip id="367" depart="367.00" from="921707136#8" to="525738547#5"/>
    <trip id="368" depart="368.00" from="117790039#8" to="-220411672#16"/>
    <trip id="369" depart="369.00" from="417933652#2" to="117823767#2"/>
    <trip id="370" depart="370.00" from="375049565#10" to="117823788#3"/>
    <trip id="371" depart="371.00" from="-411553134" to="417933657"/>
    <trip id="372" depart="372.00" from="919983794#6" to="-379232161#0"/>
    <trip id="373" depart="373.00" from="176732664#4" to="-522799168#1"/>
    <trip id="374" depart="374.00" from="59054156" to="117823788#2"/>
    <trip id="375" depart="375.00" from="521766181#1" to="506191135#21"/>
    <trip id="376" depart="376.00" from="-411553136" to="417750336#1"/>
    <trip id="377" depart="377.00" from="117823788#0" to="417933645#2"/>
    <trip id="378" depart="378.00" from="-417726316" to="-417746802#3"/>
    <trip id="379" depart="379.00" from="218873824#5" to="975332778#2"/>
    <trip id="380" depart="380.00" from="117790062#7" to="-239953380#5"/>
    <trip id="381" depart="381.00" from="174890791#5" to="-417933654#1"/>
    <trip id="382" depart="382.00" from="176732665#0" to="174890794#4"/>
    <trip id="383" depart="383.00" from="117790031#4" to="-417750356#0"/>
    <trip id="384" depart="384.00" from="-239962778#0" to="306342706#4"/>
    <trip id="385" depart="385.00" from="218724602#0" to="-376649993#1"/>
    <trip id="386" depart="386.00" from="417731485#1" to="-117790062#6"/>
    <trip id="387" depart="387.00" from="379452228" to="354725379#1"/>
    <trip id="388" depart="388.00" from="417933640" to="-522799169#0"/>
    <trip id="389" depart="389.00" from="239954371#2" to="417933646#0"/>
    <trip id="390" depart="390.00" from="919983794#6" to="117795650"/>
    <trip id="391" depart="391.00" from="-117790055#3" to="117823777#5"/>
    <trip id="392" depart="392.00" from="218971528#1" to="521766172#1"/>
    <trip id="393" depart="393.00" from="521766177#0" to="1056882877#10"/>
    <trip id="394" depart="394.00" from="129731859#0" to="117790039#1"/>
    <trip id="395" depart="395.00" from="376649990#0" to="-623719388#7"/>
    <trip id="396" depart="396.00" from="239954365#0" to="-239953388"/>
    <trip id="397" depart="397.00" from="-417933647#1" to="282212927#3"/>
    <trip id="398" depart="398.00" from="239954007" to="504227067#1"/>
    <trip id="399" depart="399.00" from="504227067#1" to="504509918#0"/>
    <trip id="400" depart="400.00" from="-506191135#5" to="-417750343"/>
    <trip id="401" depart="401.00" from="375049565#3" to="411552581#1"/>
    <trip id="402" depart="402.00" from="521766175#1" to="-117790055#0"/>
    <trip id="403" depart="403.00" from="-129731717#0" to="239953383#2"/>