<?xml version="1.0" encoding="UTF-8"?>

<!-- generated on 2026-04-02 19:03:27.050649 by Eclipse SUMO randomTrips.py v1_26_0+0000-fa7df22d7f1
<configuration>
    <net-file value="GangnamMapFile\LargeGangnamStation.net.xml"/>
    <output-trip-file value="LargeGangnamStationroute.rou.xml"/>
    <length value="True"/>
    <end value="1000.0"/>
</configuration>
-->

<!-- generated on 2026-04-02T19:03:26.696181+09:00 by Eclipse SUMO duarouter 1.26.0
<duarouterConfiguration xmlns:xsi="http://www.w3.org/2001/XMLSchema-instance" xsi:noNamespaceSchemaLocation="http://sumo.dlr.de/xsd/duarouterConfiguration.xsd">

    <input>
        <net-file value="GangnamMapFile\LargeGangnamStation.net.xml"/>
        <route-files value="LargeGangnamStationroute.rou.xml"/>
    </input>

    <output>
        <output-file value="routes.rou.xml"/>
        <alternatives-output value="NUL"/>
    </output>

    <time>
        <begin value="0"/>
        <end value="1000.0"/>
    </time>

    <report>
        <no-warnings value="true"/>
        <ignore-errors value="true"/>
        <no-step-log value="true"/>
    </report>

</duarouterConfiguration>
-->

<routes xmlns:xsi="http://www.w3.org/2001/XMLSchema-instance" xsi:noNamespaceSchemaLocation="http://sumo.dlr.de/xsd/routes_file.xsd">
    <vehicle id="0" depart="0.00">
        <route edges="239953463#2 239953463#3 239953463#4 417746803#0 417746803#1 -117790044#12 -117790044#10 -117790044#9 -117790044#8 -117790044#7"/>
    </vehicle>
    <vehicle id="1" depart="1.00">
        <route edges="-411553135#0 354725380#2 354725380#3 354725380#4 354725380#5 -623719388#5 -623719388#3 -623719388#2 -623719388#0 -494824663#5 -494824663#4 -494824663#3 -494824663#2 -494824663#1 -494824663#0 521766181#0 521766181#1 494824662#1 494824662#2 494824662#3 494824662#4 521766182#0 521766182#1 521766182#1-AddedOffRampEdge 521766182#2 990628459 304445274 480850873 504512001 504227065 504231011#0 178441450#2 178441450#3 178441450#4 -522799178 -481367910#2 -481367910#1 -481367910#0 -37399192#0"/>
    </vehicle>
    <vehicle id="2" depart="2.00">
        <route edges="379232159#1 379232153#1 -218873824#2 -218873824#1 -218873824#0 521766181#0 521766181#1 494824662#1 494824662#2 494824662#3 494824662#4 521766182#0 521766182#1 521766182#1-AddedOffRampEdge 521766182#2 990628459 218864485 520307304#0 520307304#1 520307304#2 521770119#0 521770119#1 521770119#2 -417750337#5 256787796#0"/>
    </vehicle>
    <vehicle id="3" depart="3.00">
        <route edges="522799168#0 522799168#1 522799168#2 522799168#3 1039024438#1 1039024438#2 522799169#0 522799169#2 522799169#3 1089487390#0 1089487390#1 -1046460922#1 -1046460922#0 -1046460923 -218873824#5 -218873824#3 -218873824#2 -218873824#1 -218873824#0 494824663#0 494824663#1 494824663#2 494824663#3 494824663#4 494824663#5 623719388#0 623719388#2 623719388#3 623719388#5 183401931#0 183401931#1 183401931#2 183401931#3 183401931#4 417933652#0 -174890794#3"/>
    </vehicle>
    <vehicle id="4" depart="4.00">
        <route edges="-802770128#1 -174890791#1 174890788 417933649#0 417933649#1 417933649#2 623719388#2 623719388#3 623719388#5 623719388#7 623719388#8 919983794#0 919983794#2 919983794#3 919983794#4 919983794#5 919983794#6 919983794#7 921278930#0 921278930#1 921278928 525738547#0 525738547#1 417746802#0 417746802#1 417746802#2 417746802#3 417746802#5 117790054 -117790060#3 -117790060#2 -117790060#0 -117790048#5"/>
    </vehicle>
    <vehicle id="5" depart="5.00">
        <route edges="-309155295#3 309155295#3 309155295#4 -117823785#6 -117823785#5 -117823785#4 -117823785#3 117823785#3 117823785#4"/>
    </vehicle>
    <vehicle id="6" depart="6.00">
        <route edges="-117790045#0 -417750337#2 -417750337#1 -417750337#0 -26004328#1 -26004328#0"/>
    </vehicle>
    <vehicle id="7" depart="7.00">
        <route edges="239954007 -239954009#0 -117790031#2 -557469300#1 -557469300#0 129731859#2 417750336#4 417750336#5 417750336#6 218864491#3 218864491#4 218864491#5 218864491#6 218864491#7 218864491#8 218864491#9 218864491#10 218864491#11 218864491#12 -919983794#7 -919983794#6 -919983794#5 -919983794#4 -919983794#3 -919983794#2 -919983794#1 -623719388#8 -623719388#7 183401931#0 183401931#1 183401931#2 183401931#3 183401931#4 623720804#9 623720804#10 174890795#2"/>
    </vehicle>
    <vehicle id="8" depart="8.00">
        <route edges="-354725379#1 -354725379#0 -117823785#1 -117823785#0 210332891#0 210332891#1 218864491#10 921656457 375049565#1 375049565#2 375049565#3 375049565#4 375049565#5 375049565#6 375049565#7 375049565#8 375049565#10 375049565#11 520307303#0 520307303#1 304445274 480850873 504512001 504227065 504231011#0 218857636#0 218857636#2 506191135#0 506191135#4 506191135#5 506191135#6 506191135#7 506191135#8 506191135#9 506191135#10 506191135#12 506191135#13 506191135#14 506191135#15 506191135#16 506191135#17 506191135#18 506191135#19 506191135#20 506191135#21 506191135#22 219837933#0 219837933#1"/>
    </vehicle>
    <vehicle id="9" depart="9.00">
        <route edges="417750364#0 417750364#1 -525738547#5 -525738547#4 -525738547#3 -525738547#2 -525738547#1 -525738547#0 -921278928 -921278930#1 -921278930#0 375049565#0 375049565#1 375049565#2 375049565#3 375049565#4 375049565#5 375049565#6 375049565#7 375049565#8 375049565#10 375049565#11 520307303#0 520307303#1 304445274 480850873 504512001 504227065 504231011#0 -1056882877#14 -1056882877#12 -1056882877#11 -1056882877#10 -1056882877#9 -1056882877#8 -1056882877#7 -1056882877#6 -1056882877#5"/>
    </vehicle>
    <vehicle id="10" depart="10.00">
        <route edges="417750354#1 129731859#4 129731859#6 -117790039#2 -117790039#1 375049565#7 375049565#8 375049565#10 375049565#11 520307303#0 520307303#1 304445274 480850873 504512001 504227065 504231011#0 178441450#2 178441450#3 178441450#4 1117538959 522799167#0 -306396057#0 306396057#0"/>
    </vehicle>
    <vehicle id="11" depart="11.00">
        <route edges="-417933648 417933648 494824663#3 494824663#4 494824663#5 623719388#0 623719388#2 623719388#3 623719388#5 623719388#7 623719388#8 919983794#0 919983794#2 919983794#3 919983794#4 919983794#5 919983794#6 919983794#7 921278930#0 921278930#1 921278928 525738547#0 525738547#1 -239953383#4 -239953383#3 -239953383#2 -239953461#3 -239953461#2 -239953461#1"/>
    </vehicle>
    <vehicle id="12" depart="12.00">
        <route edges="802882395 239954367#1 239954367#3 -525738547#2 -525738547#1 -525738547#0 -921278928 -921278930#1 -921278930#0 -919983794#7 -919983794#6 -919983794#5 -919983794#4 -919983794#3 -919983794#2 -919983794#1 -623719388#8 -623719388#7 -623719388#5 -623719388#3 -623719388#2 -623719388#0 -494824663#5 -494824663#4 -494824663#3 417933647#0 417933647#1 417933647#2 -417933647#2 -417933647#1 -417933647#0"/>
    </vehicle>
    <vehicle id="13" depart="13.00">
        <route edges="-176732664#4 -176732664#3 117823788#1 117823788#2 117823788#3 176732665#0 176732665#1 176732665#2 176732665#3 176732665#4 -37403040#2 -37403040#0 -494824663#4 -494824663#3 -417933648 -194455124#1 -194455124#0"/>
    </vehicle>
    <vehicle id="14" depart="14.00">
        <route edges="494824663#3 -494824663#3 -494824663#2 -494824663#1 -494824663#0 218873824#0 218873824#1 218873824#2 218873824#3 218873824#5 1046460923 1046460922#0 1046460922#1 -1089487390#1 -1089487390#0 -522799169#3 -522799169#2 -522799169#0 -1039024438#2 -1039024438#1 -522799168#3 -522799168#2 -522799168#1 -522799168#0 -220412425#4 376649989 220412424#3"/>
    </vehicle>
    <vehicle id="15" depart="15.00">
        <route edges="417750356#1 417750356#2 417750356#4 417750356#5 -210332897#4 -210332897#3 -210332897#2 -210332897#1 -210332897#0 375049565#2 375049565#3 375049565#4 375049565#5 375049565#6 375049565#7 375049565#8 375049565#10 375049565#11 520307303#0 520307303#1 304445274 480850873 504512001 504227065 504231011#0 -1056882877#14 -1056882877#12 -1056882877#11 -1056882877#10 -1056882877#9 -1056882877#8 -1056882877#7 -1056882877#6 -1056882877#5 -376649993#1 376649996#9 376649996#10 376649996#11"/>
    </vehicle>
    <vehicle id="16" depart="16.00">
        <route edges="-506191135#4 -506191135#0 -218857636#2 -218857636#1 1117538957#1 1117538957#2 1117538957#3 1117538957#4 472042764 990628460#0 990628460#1 975332778#0 975332778#1 975332778#2 218864491#0 218864491#1 218864491#3 218864491#4 218864491#5 218864491#6 218864491#7 117823788#0 117823788#1 117823788#2 117823788#3 176732665#0 176732665#1"/>
    </vehicle>
    <vehicle id="17" depart="17.00">
        <route edges="417933650#1 -174890791#2 802770128#1 802770128#2 174887147#0 174887147#1 174887147#2 174887147#4 805119726 -623719388#2 -623719388#0 -494824663#5 -494824663#4 -494824663#3 -494824663#2 -494824663#1 -494824663#0 218873824#0 218873824#1 218873824#2 218873824#3 218873824#5 1046460923 1046460922#0 1046460922#1 -1089487390#1 -1089487390#0 -522799169#3 -522799169#2 -522799169#0 -1039024438#2 -1039024438#1 -522799168#3 -522799168#2 -522799168#1 -522799168#0 -220412425#4 -220412425#3 220412432#0 220412432#1 220412432#2 220412435"/>
    </vehicle>
    <vehicle id="18" depart="18.00">
        <route edges="506191135#0 -506191135#0 -218857636#2 -218857636#1 1117538957#1 1117538957#2 1117538957#3 1117538957#4 472042764 990628460#0 990628460#1 975332778#0 975332778#1 975332778#2 218864491#0 218864491#1 218864491#3 218864491#4 218864491#5"/>
    </vehicle>
    <vehicle id="19" depart="19.00">
        <route edges="317781645#1 -1488612121 -379463126#1 379463125 -239962364#0 219837933#0 219837933#1 542367267#0 542367267#1 541692164#0 541692164#1 921707136#1 921707136#2 921707136#3 921707136#4 117792342#1 117792342#2 -117792342#2"/>
    </vehicle>
    <vehicle id="20" depart="20.00">
        <route edges="-37401215#1 -494824660#4 -494824660#3 -494824660#2 -494824660#1 -494824660#0 -494824661#1 -494824661#0 494824664#2 521766187#0 521766187#1 521766181#0 521766181#1 494824662#1 494824662#2 494824662#3 494824662#4 521766182#0 521766182#1 521766182#1-AddedOffRampEdge 521766182#2 990628459 218864485 520307304#0 520307304#1 520307304#2 521770119#0 521770119#1 521770119#2 521770119#3 521766180#0 521766180#1 521766180#2 521766180#3 -541692164#1 239954464#0 239954464#1 417731485#1 -417731485#1"/>
    </vehicle>
    <vehicle id="21" depart="21.00">
        <route edges="-174890787#1 -174890787#0 -623719388#3 -623719388#2 -623719388#0 -494824663#5 -494824663#4 -494824663#3 -494824663#2 -494824663#1 -494824663#0 521766181#0 521766181#1 494824662#1 494824662#2 494824662#3 494824662#4 521766182#0 521766182#1 521766182#1-AddedOffRampEdge 521766182#2 990628459 304445274 480850873 504512001 504227065 504231011#0 178441450#2 178441450#3 178441450#4 1117538958#1 1117538958#2 -376649992"/>
    </vehicle>
    <vehicle id="22" depart="22.00">
        <route edges="-210332892#0 210332892#0 210332892#1 210332892#2 802770127#0 802770127#1 802770127#2 802770127#3 919983794#6 919983794#7 921278930#0 921278930#1 921278928 525738547#0 525738547#1 525738547#2 525738547#3 525738547#4 525738547#5 -417750364#1 -417750364#0 -117790029#0 522435822#0 522435822#1 117792380 -417723826#0"/>
    </vehicle>
    <vehicle id="23" depart="23.00">
        <route edges="239953388 375049565#4 375049565#5 375049565#6 375049565#7 375049565#8 375049565#10 375049565#11 520307303#0 520307303#1 304445274 480850873 504512001 504227065 504231011#0 1117538957#1 1117538957#2 -504227066#2 -504227066#1 -504227066#0"/>
    </vehicle>
    <vehicle id="24" depart="24.00">
        <route edges="-504227068#2 -504227068#1 1056882877#5 1056882877#6 1056882877#7 1056882877#8 1056882877#9 1056882877#10 1056882877#11 1056882877#12 1056882877#13 218857636#0 218857636#2 506191135#0 506191135#4 506191135#5 506191135#6 506191135#7 506191135#8 506191135#9 506191135#10 506191135#12 506191135#13 506191135#14 506191135#15 506191135#16 506191135#17 506191135#18 506191135#19 506191135#20 506191135#21 506191135#22 219837933#0 219837933#1 542367267#0 542367267#1 541692164#0 541692164#1 921707136#1 921707136#2 921707136#3 921707136#4 117792342#1 -282212927#2"/>
    </vehicle>
    <vehicle id="25" depart="25.00">
        <route edges="239954001 802770122#1 239953385#1 239953388 375049565#4 375049565#5 375049565#6 375049565#7 375049565#8 375049565#10 375049565#11 520307303#0 520307303#1 304445274 480850873 504512001 504227065 504231011#0 178441450#2 178441450#3 178441450#4 1117538959 522799167#0 220412436#0 220412426#1"/>
    </vehicle>
    <vehicle id="26" depart="26.00">
        <route edges="-239954365#2 -239954365#1 -239954365#0 -117790055#2 -117790055#1 -117790054 239953791#0 239953791#1 239953791#2 239953791#3 417750348#0 417750348#1 417750348#2 375049565#5 375049565#6 375049565#7 375049565#8 375049565#10 375049565#11 520307303#0 520307303#1 304445274 480850873 504512001 504227065 504231011#0 -1056882877#14 -1056882877#12 -1056882877#11 -1056882877#10 -1056882877#9 -1056882877#8 -1056882877#7 -1056882877#6 -1056882877#5 -376649993#1 376649996#9 376649996#10"/>
    </vehicle>
    <vehicle id="27" depart="27.00">
        <route edges="-239953791#0 117790054 -117790060#3 -117790060#2 -117790060#0 239954369#0 239954369#1 239954365#5 -239954364#3 -239954364#2 -239954364#1 -239954364#0 921707137#0 921707137#1 921707137#2 921707137#3 921707137#4 921707137#5 921707137#6 -541692164#1 -541692164#0 -542367267#1 -542367267#0 -219837933#1 -219837933#0 -506191135#22 -506191135#21 -506191135#20 -506191135#19 -506191135#18 -506191135#17 -506191135#16 -506191135#15 -506191135#14 -506191135#13 -506191135#12 -506191135#10 -506191135#9 -506191135#8 -506191135#7 -506191135#6"/>
    </vehicle>
    <vehicle id="28" depart="28.00">
        <route edges="921707136#6 921707136#7 921707136#8 -522435822#1 -522435822#0 117790029#0 417750364#0 417750364#1 -525738547#5 -525738547#4 -525738547#3 417746801 239953463#3 239953463#4"/>
    </vehicle>
    <vehicle id="29" depart="29.00">
        <route edges="178441450#4 1117538958#1 1117538958#2 1117538958#3 1117538958#4 1117538957#1 1117538957#2 1117538957#3 1117538957#4 472042764 218864485 520307304#0 520307304#1 520307304#2 521770119#0 521770119#1 521770119#2 -417750337#5 -417750337#4 -417750337#3 -417750337#2 26163000#3 26163000#4 26163000#5 26163000#6"/>
    </vehicle>
    <vehicle id="30" depart="30.00">
        <route edges="494824661#1 -494824661#1 -494824661#0 494824664#2 521766187#0 521766187#1 521766181#0 521766181#1 494824662#1 494824662#2 494824662#3 494824662#4 521766182#0 521766182#1 521766182#1-AddedOffRampEdge 521766182#2 990628459 304445274 480850873 504512001 504227065 504231011#0 218857636#0 218857636#2 506191135#0 506191135#4 506191135#5 506191135#6 506191135#7 506191135#8 506191135#9 506191135#10 506191135#12 506191135#13 506191135#14 506191135#15 506191135#16 506191135#17 506191135#18 506191135#19 506191135#20 506191135#21 506191135#22 239962364#0 239962364#1 523257331#0 417731496#0 417731496#1 417731496#2 417731496#4"/>
    </vehicle>
    <vehicle id="31" depart="31.00">
        <route edges="-37401215#2 -37401215#1 -494824660#4 -494824660#3 -494824660#2 -494824660#1 -494824660#0 -494824661#1 -494824661#0 494824664#2 521766187#0 521766187#1 521766181#0 521766181#1 494824662#1 494824662#2 494824662#3 494824662#4 521766182#0 521766182#1 521766182#1-AddedOffRampEdge 521766182#2 990628459 218864485 520307304#0 520307304#1 520307304#2 521770119#0 521770119#1 521770119#2 -417750337#5 -417750337#4 -417750337#3 -417750337#2 26163000#3 26163000#4 -117790051#1 -117790051#0"/>
    </vehicle>
    <vehicle id="32" depart="32.00">
        <route edges="-417750342#2 -417750342#1 417750342#1 417750342#2 417750342#3 -239954365#5 -239954365#4 -239954365#3 -239954365#2 -239954365#1 239954367#0 239954367#1 239954367#3 417746801 -392691744#7 -392691744#6 -392691744#5 -392691744#4 -392691744#3"/>
    </vehicle>
    <vehicle id="33" depart="33.00">
        <route edges="521766180#1 379463134#1 379463134#2 379463134#3 379463134#4 379463134#5 379463134#6 -417750337#0 417750338 -117790062#3 -800742072#1 -800742072#0 -417750342#0"/>
    </vehicle>
    <vehicle id="34" depart="34.00">
        <route edges="239954365#2 239954365#3 239954365#4 239954365#5 -239954364#3 -239954364#2 -239954364#1 -239954364#0 921707137#0 921707137#1 921707137#2 921707137#3 921707137#4 921707137#5 921707137#6 -541692164#1 -541692164#0 -542367267#1 -542367267#0 -219837933#1 -219837933#0 239962364#0 239962364#1 523257331#0 523257331#1 -523257331#1"/>
    </vehicle>
    <vehicle id="35" depart="35.00">
        <route edges="541692164#1 521766175#1 521766175#2 521766175#3 521770116#0 521770116#1 521770116#2 218877837#0 218877837#1 218877837#2 523141074#0 523141074#0-AddedOffRampEdge 523141074#1 990628460#0 990628460#1 975332778#0 975332778#1 975332778#2 218864491#0 218864491#1 -417750336#6 -417750336#5 -417750336#4 129731859#3 129731859#4 129731859#6 117790039#3"/>
    </vehicle>
    <vehicle id="36" depart="36.00">
        <route edges="-379470602#1 -379470602#0 -417731496#0 -523257331#0 -239962364#1 -239962364#0 -506191135#22 -506191135#21 -506191135#20 -506191135#19 -506191135#18 -506191135#17 -506191135#16 -506191135#15 -506191135#14 -506191135#13 -506191135#12 -506191135#10 -506191135#9 -506191135#8 -506191135#7 -506191135#6 -506191135#5 -506191135#4 -506191135#0 -218857636#2 -218857636#1 1117538957#1 1117538957#2 1117538957#3 1117538957#4 913949669 1229817205#0 1229817205#1 218873820#0 218873820#1 218873820#2 218873820#3 521766172#0 521766172#1 521766172#2 494824663#0 494824663#1 494824663#2 494824663#3 494824663#4 494824663#5 623719388#0 -379417089#1 -379417089#0 -379417105#3 117823794#0 117823794#1 -379417025#2"/>
    </vehicle>
    <vehicle id="37" depart="37.00">
        <route edges="210332890#2 210332891#0 210332891#1 218864491#10 921656457 375049565#1 375049565#2 375049565#3 375049565#4 375049565#5 375049565#6 375049565#7 375049565#8 375049565#10 375049565#11 239954010 520307304#0 520307304#1 520307304#2 521770119#0 521770119#1 521770119#2 521770119#3 521766180#0 521766180#1 521766180#2 521766180#3 -541692164#1 -541692164#0 -542367267#1 239954462#0 239954462#1 239962779#0 239962779#1 239962779#2 239962779#3 239962779#4 -379470601"/>
    </vehicle>
    <vehicle id="38" depart="38.00">
        <route edges="218873820#2 218873820#3 521766172#0 521766172#1 521766172#2 218873824#0 218873824#1 218873824#2 218873824#3 218873824#5 1046460923 1046460922#0 1046460922#1 -1089487390#1 -1089487390#0 -522799169#3 -522799169#2 -522799169#0 -1039024438#2 -1039024438#1 -1039024438#0 -376649991#1 -376649991#0 -376649995#0 -522799172#2 522799172#2"/>
    </vehicle>
    <vehicle id="39" depart="39.00">
        <route edges="-525738547#2 -525738547#1 -525738547#0 -921278928 -921278930#1 -921278930#0 -919983794#7 -919983794#6 -919983794#5 -919983794#4 117823777#0 117823777#1 117823777#2 117823777#3 -354725379#1"/>
    </vehicle>
    <vehicle id="40" depart="40.00">
        <route edges="921707137#5 921707137#6 521766175#1 521766175#2 521766175#3 521770116#0 521770116#1 521770116#2 218877837#0 218877837#1 218877837#2 523141074#0 523141074#0-AddedOffRampEdge 523141074#1 990628460#0 990628460#1 975332778#0 975332778#1 975332778#2 218864491#0 218864491#1 218864491#3 218864491#4 218864491#5 218864491#6 218864491#7 117823788#0 117823788#1 117823788#2 117823788#3"/>
    </vehicle>
    <vehicle id="41" depart="41.00">
        <route edges="-176732664#0 210332891#1 218864491#10 218864491#11 218864491#12 921278930#0 921278930#1 921278928 525738547#0 525738547#1 525738547#2 525738547#3 525738547#4 525738547#5 -417750364#1 -417750364#0 -117790029#0 522435822#0 522435822#1 921707137#0 921707137#1 921707137#2 921707137#3 921707137#4 -803535317#1 -803535317#0 -117792352#1 -117792352#0"/>
    </vehicle>
    <vehicle id="42" depart="42.00">
        <route edges="-218724602#3 802770128#0 802770128#1 802770128#2 174887147#0 174887147#1 174887147#2 174887147#4 805119726 623719388#3 623719388#5 623719388#7 623719388#8 919983794#0 919983794#2 919983794#3 919983794#4 919983794#5 919983794#6 919983794#7 921278930#0 921278930#1 -210332899#1 -210332899#0 -417750356#5 239953380#0"/>
    </vehicle>
    <vehicle id="43" depart="43.00">
        <route edges="417750336#2 417750336#3 129731859#3 -417750354#1 -417750354#0 -417750352#0 -417750350#1 -417750350#0 -239953789 -239953791#1 -239953791#0 117790054 117790055#1 117790055#2 239954365#0 239954367#0 -802882395"/>
    </vehicle>
    <vehicle id="44" depart="44.00">
        <route edges="-117823788#3 117823785#3 117823785#4 117823785#5 117823785#6 417933642#2 417933642#3 375049565#10 375049565#11 520307303#0 520307303#1 304445274 480850873 504512001 504227065 504231011#0 178441450#2 178441450#3 178441450#4 1117538959 522799167#0 522799167#1 -522799167#1 -522799167#0"/>
    </vehicle>
    <vehicle id="45" depart="45.00">
        <route edges="921707137#4 921707137#5 921707137#6 921707136#1 921707136#2 921707136#3 -26163000#6 -26163000#5 -26163000#4 -26163000#3 -26163000#1 -26163000#0 -117790057 -117790031#4 -117790031#3 -117790031#2 -117790031#0 129733424#0"/>
    </vehicle>
    <vehicle id="46" depart="46.00">
        <route edges="-117790029#1 417750364#0 417750364#1 -525738547#5 -525738547#4 -525738547#3 -525738547#2 -525738547#1 -525738547#0 -921278928 -921278930#1 -921278930#0 375049565#0 375049565#1 375049565#2 375049565#3 375049565#4 375049565#5 375049565#6 375049565#7"/>
    </vehicle>
    <vehicle id="47" depart="47.00">
        <route edges="26004328#0 117790044#5 117790044#7 117790044#8 117790044#9 117790044#10 117790044#12 -525738547#4 -525738547#3 -525738547#2 -525738547#1 -525738547#0 -921278928 -921278930#1 -921278930#0 -919983794#7 -919983794#6 -919983794#5 -919983794#4 -919983794#3 -919983794#2 -919983794#1 -623719388#8 -623719388#7 -623719388#5 174890787#0 174890787#1 174890787#2 417933650#0 417933650#1 174890791#3 174890791#4"/>
    </vehicle>
    <vehicle id="48" depart="48.00">
        <route edges="-392691741 392691741 417746809#1 -392691744#1 -417746820#1 -417746820#0 239953464#1"/>
    </vehicle>
    <vehicle id="49" depart="49.00">
        <route edges="-218873824#1 -218873824#0 494824663#0 494824663#1 494824663#2 494824663#3 494824663#4 494824663#5 623719388#0 623719388#2 623719388#3 623719388#5 623719388#7 623719388#8 919983794#0 919983794#2 919983794#3 919983794#4 919983794#5 919983794#6 919983794#7 921278930#0 921278930#1 921278929 -921278929"/>
    </vehicle>
    <vehicle id="50" depart="50.00">
        <route edges="117790029#1 117790044#10 117790044#12 -525738547#4 -525738547#3 -525738547#2 -525738547#1 -525738547#0 -921278928 -921278930#1 -921278930#0 -919983794#7 -919983794#6 -919983794#5 -919983794#4 -919983794#3 -919983794#2 -919983794#1 -623719388#8 -623719388#7 183401931#0 183401931#1 183401931#2 183401931#3 183401931#4 417933652#0 417933652#1 417933652#2 218724602#0 218724602#2 802770128#0"/>
    </vehicle>
    <vehicle id="51" depart="51.00">
        <route edges="521766177#1 -541692164#1 -541692164#0 -542367267#1 239954462#0 239954462#1 -239962780#2 -239962780#1 239962776 -379470602#1 -379470602#0"/>
    </vehicle>
    <vehicle id="52" depart="52.00">
        <route edges="117823773#2 -176732663#1 -176732663#0 218864491#6 218864491#7 218864491#8 218864491#9 218864491#10 218864491#11 218864491#12 921278930#0 921278930#1 921278928 525738547#0 525738547#1 525738547#2 525738547#3 525738547#4 -117790044#12 -117790044#10 -117790044#9 -239954369#2"/>
    </vehicle>
    <vehicle id="53" depart="53.00">
        <route edges="525738547#3 525738547#4 -525738547#4 -525738547#3 -525738547#2 -525738547#1 -525738547#0 -921278928 -921278930#1 -921278930#0 375049565#0 375049565#1 375049565#2 375049565#3 375049565#4 375049565#5 375049565#6 375049565#7 375049565#8 375049565#10 375049565#11 520307303#0 520307303#1 521766174 1229817205#0 1229817205#1 218873820#0 218873820#1 218873820#2 218873820#3 521766172#0 521766172#1"/>
    </vehicle>
    <vehicle id="54" depart="54.00">
        <route edges="-417746802#3 -417746802#2 -417746802#1 -417746802#0 525738547#2 417746801 239953463#3"/>
    </vehicle>
    <vehicle id="55" depart="55.00">
        <route edges="220412425#4 -220412425#4 -220412425#3 -220412425#2 -220412425#1 -220412425#0 -1117538959 1117538958#1 1117538958#2 1117538958#3 1117538958#4 1117538957#1 1117538957#2 1117538957#3 1117538957#4 472042764 990628460#0 990628460#1 975332778#0 975332778#1 975332778#2 218864491#0 218864491#1 218864491#3 218864491#4 218864491#5 218864491#6 218864491#7 218864491#8 218864491#9 218864491#10 218864491#11 218864491#12 921278930#0 921278930#1 921278928 525738547#0 525738547#1 525738547#2 525738547#3 525738547#4 -417746803#1 -417746803#0 239953463#6 -239953386#2 -239953386#1"/>
    </vehicle>
    <vehicle id="56" depart="56.00">
        <route edges="411553135#0 -117823767#1 -117823767#0 -117823795 174890787#0 174890792#2 174890792#3 174890792#4 174890792#5"/>
    </vehicle>
    <vehicle id="57" depart="57.00">
        <route edges="417731501#1 417731504#1 417731504#2 417731504#3 417731504#4 -703247063 -523257331#8 -523257331#7 -523257331#6 -523257331#5 -523257331#4 -523257331#2 -523257331#1 -523257331#0 -239962364#1 -239962364#0 -506191135#22 -506191135#21 -506191135#20 -506191135#19 -506191135#18 -506191135#17 -506191135#16 -506191135#15 -506191135#14 -506191135#13 -506191135#12 -506191135#10 -506191135#9 -506191135#8 -506191135#7 -506191135#6 -506191135#5 -506191135#4 -506191135#0 -218857636#2 -218857636#1 1117538957#1 1117538957#2 1117538957#3 1117538957#4 913949669 1229817205#0 1229817205#1 218873820#0 218873820#1 218873820#2 218873820#3 521766172#0 521766172#1 521766172#2 494824663#0 494824663#1 494824663#2 494824663#3 494824663#4 494824663#5 623719388#0 -379417089#1 -379417089#0 -379417105#3 117823794#0 117823794#1 -379417025#2 -379417025#1 1467794801"/>
    </vehicle>
    <vehicle id="58" depart="58.00">
        <route edges="-1011529829#0 -504509918#2 -504509918#1 -504509918#0 523141074#0 523141074#0-AddedOffRampEdge 523141074#1 990628460#0 990628460#1 975332778#0 975332778#1 975332778#2 218864491#0 218864491#1 218864491#3 218864491#4 218864491#5 218864491#6 218864491#7 218864491#8 218864491#9 218864491#10 218864491#11 218864491#12 921278930#0 921278930#1 921278928 525738547#0 525738547#1 525738547#2 525738547#3 525738547#4 525738547#5 -417750364#1 -417750364#0"/>
    </vehicle>
    <vehicle id="59" depart="59.00">
        <route edges="-117790039#9 -117790039#8 -117790039#7 -117790039#6 -117790039#5 -117790039#4 -117790039#3 -117790039#2 -117790039#1 375049565#7 375049565#8 -417933642#3 -417933642#2 -417933642#1 -417933642#0 -37403040#2 -37403040#0 -623719387 -623719386 -417933640 623720803#0 623720803#1 623720803#2"/>
    </vehicle>
    <vehicle id="60" depart="60.00">
        <route edges="521766180#3 521766175#1 521766175#2 521766175#3 521770116#0 521770116#1 521770116#2 218877837#0 218877837#1 218877837#2 523141074#0 523141074#0-AddedOffRampEdge 523141074#1 521766174 1229817205#0 1229817205#1 218873820#0 218873820#1 218873820#2 218873820#3 521766172#0 521766172#1 521766172#2 494824663#0 494824663#1 494824663#2 494824663#3 494824663#4 494824663#5 623719388#0 623719388#2 623719388#3 623719388#5 183401931#0 183401931#1 183401931#2 183401931#3 183401931#4 417933652#0"/>
    </vehicle>
    <vehicle id="61" depart="61.00">
        <route edges="-417750336#3 -417750336#2 -417750336#1 -417750336#0 -117790036#0 117790036#0 417750336#0 417750336#1 417750336#2 417750336#3 417750336#4 417750336#5 417750336#6 218864491#3 218864491#4 218864491#5 218864491#6 218864491#7 117823788#0 117823788#1 117823788#2 -117823785#2"/>
    </vehicle>
    <vehicle id="62" depart="62.00">
        <route edges="521766180#2 521766180#3 521766175#1 521766175#2 521766175#3 521770116#0 521770116#1 521770116#2 218877837#0 218877837#1 218877837#2 523141074#0 523141074#0-AddedOffRampEdge 305539406 480850873 504512001 504227065 504231011#0 178441450#2 178441450#3 178441450#4 1117538959 220412425#0 220412425#1 220412425#2 220412425#3 220412425#4 220412439#0 220412439#1 220412439#2 220412439#3 220412439#4 376649994#0 376649994#1 702032001"/>
    </vehicle>
    <vehicle id="63" depart="63.00">
        <route edges="-174890791#5 -174890791#4 -174890791#3 -417933650#1 -417933650#0 -174890787#2 -174890787#1 -174890787#0 623719388#5 623719388#7 623719388#8 919983794#0 919983794#2 919983794#3 919983794#4 919983794#5 919983794#6 919983794#7 921278930#0 921278930#1 921278928 525738547#0 525738547#1 525738547#2 525738547#3 525738547#4 -117790044#12 -117790044#10 -117790044#9 -117790044#8 -117790044#7 117790062#0 117790062#1 117790062#2 117790062#3"/>
    </vehicle>
    <vehicle id="64" depart="64.00">
        <route edges="-129731720#0 -523141073 913950883#0 -504509918#2 -504509918#1 -504509918#0 523141074#0 523141074#0-AddedOffRampEdge 523141074#1 990628460#0 990628460#1 975332778#0 975332778#1 975332778#2 218864491#0 218864491#1 218864491#3 218864491#4 218864491#5 218864491#6 218864491#7 218864491#8 218864491#9 218864491#10 218864491#11 218864491#12 -919983794#7 -919983794#6 -919983794#5 -919983794#4 -919983794#3 -919983794#2 -404008685#1 -404008685#0 411553135#0"/>
    </vehicle>
    <vehicle id="65" depart="65.00">
        <route edges="417723810#2 417723810#3 921707137#6 521766175#1 521766175#2 521766175#3 521770116#0 521770116#1 521770116#2 218877837#0 218877837#1 218877837#2 523141074#0 523141074#0-AddedOffRampEdge 523141074#1 521766174 1229817205#0 1229817205#1 218873820#0 218873820#1 218873820#2 218873820#3 521766172#0 521766172#1 521766172#2 218873824#0 218873824#1 218873824#2 218873824#3 218873824#5 1046460923 1046460922#0 1046460922#1 -1089487390#1 -1089487390#0 -522799169#3 -522799169#2 -522799169#0 -220412424#3"/>
    </vehicle>
    <vehicle id="66" depart="66.00">
        <route edges="117790049#0 117790049#1 117790049#2 117790036#0 417750336#0 417750336#1 417750336#2 417750336#3 417750336#4 417750336#5 417750336#6 218864491#3 218864491#4 218864491#5 218864491#6 218864491#7 218864491#8 218864491#9 -210332891#1 176732664#0 176732664#1 176732664#2"/>
    </vehicle>